Version 4
SHEET 1 976 680
WIRE 48 -48 -96 -48
WIRE 192 -48 112 -48
WIRE 272 -48 192 -48
WIRE 368 -48 272 -48
WIRE 448 -48 368 -48
WIRE 784 -48 704 -48
WIRE 880 -48 784 -48
WIRE 912 -48 880 -48
WIRE -96 -16 -96 -48
WIRE 272 -16 272 -48
WIRE 368 -16 368 -48
WIRE 784 -16 784 -48
WIRE 880 -16 880 -48
WIRE 192 0 192 -48
WIRE 192 80 192 64
WIRE 272 80 272 48
WIRE 368 80 368 48
WIRE 576 80 576 48
WIRE 784 80 784 48
WIRE 880 80 880 48
WIRE -96 96 -96 64
FLAG -96 96 0
FLAG 880 80 0
FLAG 784 80 0
FLAG 368 80 0
FLAG 272 80 0
FLAG 192 80 0
FLAG 912 -48 VCC
FLAG -96 -48 VBAT
FLAG 576 80 0
SYMBOL voltage -96 -32 R0
SYMATTR InstName VBAT
SYMATTR Value {V}
SYMBOL cap 352 -16 R0
SYMATTR InstName C1
SYMATTR Value 1µ
SYMBOL cap 256 -16 R0
SYMATTR InstName C2
SYMATTR Value 100n
SYMBOL cap 768 -16 R0
SYMATTR InstName C3
SYMATTR Value 100n
SYMBOL cap 864 -16 R0
SYMATTR InstName C4
SYMATTR Value 1µ
SYMBOL diode 48 -32 R270
WINDOW 0 32 32 VTop 2
WINDOW 3 0 32 VBottom 2
SYMATTR InstName D1
SYMATTR Value 1N914
SYMBOL zener 208 64 R180
WINDOW 0 24 64 Left 2
WINDOW 3 24 0 Left 2
SYMATTR InstName D2
SYMATTR Value BZX84C15L
SYMATTR Description Diode
SYMATTR Type diode
SYMBOL PowerProducts\\LT1117-5 576 -48 R0
SYMATTR InstName U1
TEXT -32 168 Left 2 !.step param V list 9 10 11 12 13 14 15 16
TEXT -32 208 Left 2 !.tran 1s
